<?xml version="1.0" encoding="UTF-8"?>
<routes>
    <!-- Définition d’un type de véhicule -->
    <vType id="car" accel="1.0" decel="5.0" length="2.0" maxSpeed="25" sigma="0.0" />
    <!-- Définition d’une route passant par les deux arêtes -->
    <route id="route0" edges="1to2 2to3"/>
    <!-- Définition d’un véhicule qui emprunte la route -->
    <vehicle id="veh0" type="car" route="route0" depart="0" />
</routes>