<?xml version="1.0" encoding="UTF-8"?>
<edges>
    <edge id="edge1" from="1" to="2"/>
    <edge id="edge2" from="2" to="3"/>
</edges>